[Format]      =  4.0
[Frequency]   =  60
[Precision]   =  1e-008
[MinAngle]    =  30
[Depth]       =  1
[LengthUnits] =  millimeters
[ProblemType] =  planar
[Coordinates] =  cartesian
[ACSolver]    =  0
[PrevSoln]    =  ""
[Comment]     =  "Add comments here."
[PointProps]   = 0
[BdryProps]   = 1
  <BeginBdry>
    <BdryName> = "Outer"
    <BdryType> = 0
    <A_0> = 0
    <A_1> = 0
    <A_2> = 0
    <Phi> = 0
    <c0> = 0
    <c0i> = 0
    <c1> = 0
    <c1i> = 0
    <Mu_ssd> = 0
    <Sigma_ssd> = 0
  <EndBdry>
[BlockProps]  = 5
  <BeginBlock>
    <BlockName> = "Air"
    <Mu_x> = 1
    <Mu_y> = 1
    <H_c> = 0
    <H_cAngle> = 0
    <J_re> = 0
    <J_im> = 0
    <Sigma> = 0
    <d_lam> = 0
    <Phi_h> = 0
    <Phi_hx> = 0
    <Phi_hy> = 0
    <LamType> = 0
    <LamFill> = 1
    <NStrands> = 0
    <WireD> = 0
    <BHPoints> = 0
  <EndBlock>
  <BeginBlock>
    <BlockName> = "36 AWG"
    <Mu_x> = 1
    <Mu_y> = 1
    <H_c> = 0
    <H_cAngle> = 0
    <J_re> = 0
    <J_im> = 0
    <Sigma> = 58
    <d_lam> = 0
    <Phi_h> = 0
    <Phi_hx> = 0
    <Phi_hy> = 0
    <LamType> = 3
    <LamFill> = 1
    <NStrands> = 1
    <WireD> = 0.12704655216407401
    <BHPoints> = 0
  <EndBlock>
  <BeginBlock>
    <BlockName> = "Stator"
    <Mu_x> = 30
    <Mu_y> = 30
    <H_c> = 0
    <H_cAngle> = 0
    <J_re> = 0
    <J_im> = 0
    <Sigma> = 0
    <d_lam> = 0
    <Phi_h> = 0
    <Phi_hx> = 0
    <Phi_hy> = 0
    <LamType> = 0
    <LamFill> = 1
    <NStrands> = 0
    <WireD> = 0
    <BHPoints> = 0
  <EndBlock>
  <BeginBlock>
    <BlockName> = "Rotor Steel"
    <Mu_x> = 30
    <Mu_y> = 30
    <H_c> = 0
    <H_cAngle> = 0
    <J_re> = 0
    <J_im> = 0
    <Sigma> = 1.6000000000000001
    <d_lam> = 0
    <Phi_h> = 0
    <Phi_hx> = 0
    <Phi_hy> = 0
    <LamType> = 0
    <LamFill> = 1
    <NStrands> = 0
    <WireD> = 0
    <BHPoints> = 0
  <EndBlock>
  <BeginBlock>
    <BlockName> = "Aluminum"
    <Mu_x> = 1
    <Mu_y> = 1
    <H_c> = 0
    <H_cAngle> = 0
    <J_re> = 0
    <J_im> = 0
    <Sigma> = 37.200000000000003
    <d_lam> = 0
    <Phi_h> = 0
    <Phi_hx> = 0
    <Phi_hy> = 0
    <LamType> = 0
    <LamFill> = 1
    <NStrands> = 0
    <WireD> = 0
    <BHPoints> = 0
  <EndBlock>
[CircuitProps]  = 1
  <BeginCircuit>
    <CircuitName> = "Phase A"
    <TotalAmps_re> = 2045.175
    <TotalAmps_im> = 0
    <CircuitType> = 1
  <EndCircuit>
[NumPoints] = 30
29.564145040361176	-12.245869835682873	0	0
48.041735690586911	19.899538482984667	0	0
57	0	0	0
-57	6.9804867551399129e-015	0	0
48.041735690586911	-19.899538482984664	0	0
29.564145040361176	12.245869835682869	0	0
25.387306889319529	19.480365728279054	0	0
4.176838151041661	31.726235563961929	0	0
-4.1768381510416397	31.726235563961932	0	0
-25.387306889319515	19.480365728279068	0	0
-29.564145040361169	12.245869835682885	0	0
-29.564145040361183	-12.245869835682857	0	0
-25.387306889319539	-19.480365728279047	0	0
-4.1768381510416734	-31.726235563961932	0	0
4.1768381510416281	-31.726235563961939	0	0
25.387306889319515	-19.480365728279082	0	0
41.254373695144231	31.655594308453473	0	0
6.7873619954426907	51.55513279143814	0	0
-6.7873619954426729	51.555132791438147	0	0
-41.254373695144217	31.655594308453487	0	0
-48.041735690586904	19.899538482984688	0	0
-48.041735690586918	-19.899538482984642	0	0
-41.254373695144245	-31.655594308453448	0	0
-6.7873619954427156	-51.555132791438133	0	0
6.7873619954426472	-51.555132791438147	0	0
41.254373695144203	-31.655594308453502	0	0
30	0	0	0
20	0	0	0
-30	3.67394039744206e-015	0	0
-20	2.4492935982947065e-015	0	0
[NumSegments] = 12
5	1	-1	0	0	0
0	4	-1	0	0	0
6	16	-1	0	0	0
7	17	-1	0	0	0
8	18	-1	0	0	0
9	19	-1	0	0	0
10	20	-1	0	0	0
11	21	-1	0	0	0
12	22	-1	0	0	0
13	23	-1	0	0	0
14	24	-1	0	0	0
15	25	-1	0	0	0
[NumArcSegments] = 24
2	3	180	1	1	0	0
3	2	180	1	1	0	0
4	1	45	1	0	0	0
0	5	45	1	0	0	0
6	7	45	1	0	0	0
8	9	45	1	0	0	0
10	11	45	1	0	0	0
12	13	45	1	0	0	0
14	15	45	1	0	0	0
16	17	45	1	0	0	0
18	19	45	1	0	0	0
20	21	45	1	0	0	0
22	23	45	1	0	0	0
24	25	45	1	0	0	0
26	28	180	1	0	0	0
28	26	180	1	0	0	0
27	29	180	1	0	0	0
29	27	180	1	0	0	0
1	16	15	1	0	0	0
17	18	15	1	0	0	0
19	20	15	1	0	0	0
21	22	15	1	0	0	0
23	24	15	1	0	0	0
25	4	15	1	0	0	0
[NumHoles] = 0
[NumBlockLabels] = 10
-1	0.5	4	-1	0	0	0	1	0
54.5	-4.5	3	-1	0	0	0	1	0
24.25	6.5	5	-1	0	0	0	1	0
0	32.75	1	-1	0	0	0	1	0
42.5	5.75	2	-1	1	0	0	1	0
-45	1.75	2	-1	1	0	0	-1	0
20.25	36	2	-1	0	0	0	1	0
-19	39	2	-1	0	0	0	1	0
-20.25	-34.5	2	-1	0	0	0	1	0
20.75	-35.5	2	-1	0	0	0	1	0
